%mem=1500MB
%nprocshared=4
%chk=E:\TRESC\carbene-3et\Gaussian\Scratch\Gaujob.chk
# uhf/gen 6d 10f nosymm iop(3/32=2,3/27=9) int=nobasistransform

C6H5+

1 1
 C                  0.00000000    1.29390795    0.00000000
 C                  1.26894294    0.69491769    0.00000000
 C                  1.25319073   -0.68704191    0.00000000
 C                  0.00000000   -1.37652121    0.00000000
 C                 -1.25319073   -0.68704191    0.00000000
 C                 -1.26894294    0.69491769    0.00000000
 H                  2.18616903    1.27569862    0.00000000
 H                  2.18025862   -1.25246238    0.00000000
 H                  0.00000000   -2.46323577    0.00000000
 H                 -2.18025862   -1.25246238    0.00000000
 H                 -2.18616903    1.27569862    0.00000000

@E:\TRESC\TRESC\basis\DKH-def2-SVP.gbs



