%mem=1500MB
%nprocshared=4
%chk=E:\TRESC\examples\carbene-3et\Gaussian\Scratch\CH2.chk
# uhf/gen nosymm iop(3/32=2,3/27=9) int=nobasistransform

CH2

0 3
 C                  0.00000000    0.00000000    0.10307000
 H                  0.00000000    0.99638600   -0.30921000
 H                  0.00000000   -0.99638600   -0.30921000

@E:\TRESC\TRESC\basis\DKH-def2-SVP.gbs


