7
Coordinates from ORCA-job /scratch/orcascr/Ni0-C2H4/Ni0-C2H4 E -1586.269502273988
  Ni          1.07567147846727      3.52702612581214     -0.24542465469385
  C           2.37423745732655      2.59912522982125      0.68839798141375
  C           2.58085763464158      2.57927532780062     -0.73808612522389
  H           3.03275189718484      3.21244821050725      1.32281810115447
  H           2.03042508624703      1.68586336604915      1.19832693943124
  H           2.39761819687315      1.64997201224965     -1.29960598216089
  H           3.39363904925955      3.17976832775993     -1.17544801992083
  
  
%Atoms
basis=x2c-svpall-2c
endAtoms

%Hamiltonian
pvp1e
threads=32
endHamiltonian

%SCF
damp=0.3
emd4=pbe0
nodiis=8
diisdamp=0.1
molden
endSCF

%functional
xid=101
cid=130
xhf=0.25
endfunctional


