%mem=1500MB
%nprocshared=4
%chk=E:\TRESC\examples\SCN\Gaussian\Scratch\SCN.chk
# opt uhf/gen nosymm 10f 6d int=nobasistransform iop(3/32=2,3/27=9)

Title Card Required

0 2
 S                 -9.11657200   -3.34482800    0.00000000
 C                -10.76826600   -3.34482800    0.00000000
 N                -11.92520400   -3.34482800    0.00000000

